(PID.TID 0000.0001) ** Warning ** PTRACERS_READPARMS: ignores "data.ptracers" file since
(PID.TID 0000.0001) ** Warning ** PTRACERS_READPARMS: usePTRACERS= F (set from "data.pkg")
